 INFO
nunit      1    1    1
unit   cell
celltype   convcell
shape   parapipedal
 END_INFO
 DIM-GROUP
           3           1
 PRIMVEC
    2.4600000000    0.0000000000    0.0000000000
    0.0000000000    4.2608449870    0.0000000000
    0.0000000000    0.0000000000   20.0000000000
 CONVVEC
    2.4600000000    0.0000000000    0.0000000000
    0.0000000000    4.2608449870    0.0000000000
    0.0000000000    0.0000000000   20.0000000000
 PRIMCOORD
           4           1
  6      0.0000000000     0.0000000000     8.0000000000
  6      0.0000000000     2.8405633240     8.0000000000
  6      1.2300000000     2.1304224630     8.0000000000
  6      1.2300000000     0.7101408310     8.0000000000
 CONVCOORD
           4           1
  6      0.0000000000     0.0000000000     8.0000000000
  6      0.0000000000     2.8405633240     8.0000000000
  6      1.2300000000     2.1304224630     8.0000000000
  6      1.2300000000     0.7101408310     8.0000000000
 RECIP-PRIMVEC
    0.4065040650    0.0000000000    0.0000000000

    0.0000000000    0.2346952314    0.0000000000

    0.0000000000    0.0000000000    0.0500000000

 RECIP-CONVVEC
    0.4065040650    0.0000000000    0.0000000000

    0.0000000000    0.2346952314    0.0000000000

    0.0000000000    0.0000000000    0.0500000000

 WIGNER-SEITZ-PRIMCELL
           4
 -0.1230000E+01  0.2130422E+01  0.1000000E+02  -0.1000000E+01  0.0000000E+00  0.0000000E+00
 -0.1230000E+01  0.2130422E+01 -0.1000000E+02  -0.1000000E+01  0.0000000E+00  0.0000000E+00
 -0.1230000E+01 -0.2130422E+01 -0.1000000E+02  -0.1000000E+01  0.0000000E+00  0.0000000E+00
 -0.1230000E+01 -0.2130422E+01  0.1000000E+02  -0.1000000E+01  0.0000000E+00  0.0000000E+00
           4
 -0.1230000E+01 -0.2130422E+01  0.1000000E+02  -0.0000000E+00 -0.1000000E+01 -0.0000000E+00
 -0.1230000E+01 -0.2130422E+01 -0.1000000E+02  -0.0000000E+00 -0.1000000E+01 -0.0000000E+00
  0.1230000E+01 -0.2130422E+01 -0.1000000E+02  -0.0000000E+00 -0.1000000E+01 -0.0000000E+00
  0.1230000E+01 -0.2130422E+01  0.1000000E+02  -0.0000000E+00 -0.1000000E+01 -0.0000000E+00
           4
 -0.1230000E+01 -0.2130422E+01 -0.1000000E+02  -0.9320990E-15  0.0000000E+00 -0.1000000E+01
 -0.1230000E+01  0.2130422E+01 -0.1000000E+02  -0.9320990E-15  0.0000000E+00 -0.1000000E+01
  0.1230000E+01  0.2130422E+01 -0.1000000E+02  -0.9320990E-15  0.0000000E+00 -0.1000000E+01
  0.1230000E+01 -0.2130422E+01 -0.1000000E+02  -0.9320990E-15  0.0000000E+00 -0.1000000E+01
           4
 -0.1230000E+01 -0.2130422E+01  0.1000000E+02   0.6778902E-15 -0.0000000E+00  0.1000000E+01
  0.1230000E+01 -0.2130422E+01  0.1000000E+02   0.6778902E-15 -0.0000000E+00  0.1000000E+01
  0.1230000E+01  0.2130422E+01  0.1000000E+02   0.6778902E-15 -0.0000000E+00  0.1000000E+01
 -0.1230000E+01  0.2130422E+01  0.1000000E+02   0.6778902E-15 -0.0000000E+00  0.1000000E+01
           4
  0.1230000E+01  0.2130422E+01  0.1000000E+02   0.0000000E+00  0.1000000E+01  0.0000000E+00
  0.1230000E+01  0.2130422E+01 -0.1000000E+02   0.0000000E+00  0.1000000E+01  0.0000000E+00
 -0.1230000E+01  0.2130422E+01 -0.1000000E+02   0.0000000E+00  0.1000000E+01  0.0000000E+00
 -0.1230000E+01  0.2130422E+01  0.1000000E+02   0.0000000E+00  0.1000000E+01  0.0000000E+00
           4
  0.1230000E+01 -0.2130422E+01 -0.1000000E+02   0.1000000E+01 -0.0000000E+00 -0.0000000E+00
  0.1230000E+01  0.2130422E+01 -0.1000000E+02   0.1000000E+01 -0.0000000E+00 -0.0000000E+00
  0.1230000E+01  0.2130422E+01  0.1000000E+02   0.1000000E+01 -0.0000000E+00 -0.0000000E+00
  0.1230000E+01 -0.2130422E+01  0.1000000E+02   0.1000000E+01 -0.0000000E+00 -0.0000000E+00
 WIGNER-SEITZ-PRIMCELL_END
 WIGNER-SEITZ-CONVCELL
           4
 -0.1230000E+01  0.2130422E+01  0.1000000E+02  -0.1000000E+01  0.0000000E+00  0.0000000E+00
 -0.1230000E+01  0.2130422E+01 -0.1000000E+02  -0.1000000E+01  0.0000000E+00  0.0000000E+00
 -0.1230000E+01 -0.2130422E+01 -0.1000000E+02  -0.1000000E+01  0.0000000E+00  0.0000000E+00
 -0.1230000E+01 -0.2130422E+01  0.1000000E+02  -0.1000000E+01  0.0000000E+00  0.0000000E+00
           4
 -0.1230000E+01 -0.2130422E+01  0.1000000E+02  -0.0000000E+00 -0.1000000E+01 -0.0000000E+00
 -0.1230000E+01 -0.2130422E+01 -0.1000000E+02  -0.0000000E+00 -0.1000000E+01 -0.0000000E+00
  0.1230000E+01 -0.2130422E+01 -0.1000000E+02  -0.0000000E+00 -0.1000000E+01 -0.0000000E+00
  0.1230000E+01 -0.2130422E+01  0.1000000E+02  -0.0000000E+00 -0.1000000E+01 -0.0000000E+00
           4
 -0.1230000E+01 -0.2130422E+01 -0.1000000E+02  -0.9320990E-15  0.0000000E+00 -0.1000000E+01
 -0.1230000E+01  0.2130422E+01 -0.1000000E+02  -0.9320990E-15  0.0000000E+00 -0.1000000E+01
  0.1230000E+01  0.2130422E+01 -0.1000000E+02  -0.9320990E-15  0.0000000E+00 -0.1000000E+01
  0.1230000E+01 -0.2130422E+01 -0.1000000E+02  -0.9320990E-15  0.0000000E+00 -0.1000000E+01
           4
 -0.1230000E+01 -0.2130422E+01  0.1000000E+02   0.6778902E-15 -0.0000000E+00  0.1000000E+01
  0.1230000E+01 -0.2130422E+01  0.1000000E+02   0.6778902E-15 -0.0000000E+00  0.1000000E+01
  0.1230000E+01  0.2130422E+01  0.1000000E+02   0.6778902E-15 -0.0000000E+00  0.1000000E+01
 -0.1230000E+01  0.2130422E+01  0.1000000E+02   0.6778902E-15 -0.0000000E+00  0.1000000E+01
           4
  0.1230000E+01  0.2130422E+01  0.1000000E+02   0.0000000E+00  0.1000000E+01  0.0000000E+00
  0.1230000E+01  0.2130422E+01 -0.1000000E+02   0.0000000E+00  0.1000000E+01  0.0000000E+00
 -0.1230000E+01  0.2130422E+01 -0.1000000E+02   0.0000000E+00  0.1000000E+01  0.0000000E+00
 -0.1230000E+01  0.2130422E+01  0.1000000E+02   0.0000000E+00  0.1000000E+01  0.0000000E+00
           4
  0.1230000E+01 -0.2130422E+01 -0.1000000E+02   0.1000000E+01 -0.0000000E+00 -0.0000000E+00
  0.1230000E+01  0.2130422E+01 -0.1000000E+02   0.1000000E+01 -0.0000000E+00 -0.0000000E+00
  0.1230000E+01  0.2130422E+01  0.1000000E+02   0.1000000E+01 -0.0000000E+00 -0.0000000E+00
  0.1230000E+01 -0.2130422E+01  0.1000000E+02   0.1000000E+01 -0.0000000E+00 -0.0000000E+00
 WIGNER-SEITZ-CONVCELL_END
 BRILLOUIN-ZONE-PRIMCELL
           4
 -0.2032520E+00  0.1173476E+00  0.2500000E-01  -0.1000000E+01  0.0000000E+00  0.0000000E+00
 -0.2032520E+00  0.1173476E+00 -0.2500000E-01  -0.1000000E+01  0.0000000E+00  0.0000000E+00
 -0.2032520E+00 -0.1173476E+00 -0.2500000E-01  -0.1000000E+01  0.0000000E+00  0.0000000E+00
 -0.2032520E+00 -0.1173476E+00  0.2500000E-01  -0.1000000E+01  0.0000000E+00  0.0000000E+00
           4
 -0.2032520E+00 -0.1173476E+00 -0.2500000E-01  -0.0000000E+00 -0.1000000E+01 -0.0000000E+00
  0.2032520E+00 -0.1173476E+00 -0.2500000E-01  -0.0000000E+00 -0.1000000E+01 -0.0000000E+00
  0.2032520E+00 -0.1173476E+00  0.2500000E-01  -0.0000000E+00 -0.1000000E+01 -0.0000000E+00
 -0.2032520E+00 -0.1173476E+00  0.2500000E-01  -0.0000000E+00 -0.1000000E+01 -0.0000000E+00
           4
 -0.2032520E+00  0.1173476E+00 -0.2500000E-01   0.9091407E-17  0.0000000E+00 -0.1000000E+01
  0.2032520E+00  0.1173476E+00 -0.2500000E-01   0.9091407E-17  0.0000000E+00 -0.1000000E+01
  0.2032520E+00 -0.1173476E+00 -0.2500000E-01   0.9091407E-17  0.0000000E+00 -0.1000000E+01
 -0.2032520E+00 -0.1173476E+00 -0.2500000E-01   0.9091407E-17  0.0000000E+00 -0.1000000E+01
           4
  0.2032520E+00 -0.1173476E+00  0.2500000E-01  -0.5454844E-17 -0.0000000E+00  0.1000000E+01
  0.2032520E+00  0.1173476E+00  0.2500000E-01  -0.5454844E-17 -0.0000000E+00  0.1000000E+01
 -0.2032520E+00  0.1173476E+00  0.2500000E-01  -0.5454844E-17 -0.0000000E+00  0.1000000E+01
 -0.2032520E+00 -0.1173476E+00  0.2500000E-01  -0.5454844E-17 -0.0000000E+00  0.1000000E+01
           4
 -0.2032520E+00  0.1173476E+00  0.2500000E-01   0.0000000E+00  0.1000000E+01  0.0000000E+00
  0.2032520E+00  0.1173476E+00  0.2500000E-01   0.0000000E+00  0.1000000E+01  0.0000000E+00
  0.2032520E+00  0.1173476E+00 -0.2500000E-01   0.0000000E+00  0.1000000E+01  0.0000000E+00
 -0.2032520E+00  0.1173476E+00 -0.2500000E-01   0.0000000E+00  0.1000000E+01  0.0000000E+00
           4
  0.2032520E+00 -0.1173476E+00 -0.2500000E-01   0.1000000E+01 -0.0000000E+00 -0.0000000E+00
  0.2032520E+00  0.1173476E+00 -0.2500000E-01   0.1000000E+01 -0.0000000E+00 -0.0000000E+00
  0.2032520E+00  0.1173476E+00  0.2500000E-01   0.1000000E+01 -0.0000000E+00 -0.0000000E+00
  0.2032520E+00 -0.1173476E+00  0.2500000E-01   0.1000000E+01 -0.0000000E+00 -0.0000000E+00
 BRILLOUIN-ZONE-PRIMCELL_END
 BRILLOUIN-ZONE-CONVCELL
           4
 -0.2032520E+00  0.1173476E+00  0.2500000E-01  -0.1000000E+01  0.0000000E+00  0.0000000E+00
 -0.2032520E+00  0.1173476E+00 -0.2500000E-01  -0.1000000E+01  0.0000000E+00  0.0000000E+00
 -0.2032520E+00 -0.1173476E+00 -0.2500000E-01  -0.1000000E+01  0.0000000E+00  0.0000000E+00
 -0.2032520E+00 -0.1173476E+00  0.2500000E-01  -0.1000000E+01  0.0000000E+00  0.0000000E+00
           4
 -0.2032520E+00 -0.1173476E+00 -0.2500000E-01  -0.0000000E+00 -0.1000000E+01 -0.0000000E+00
  0.2032520E+00 -0.1173476E+00 -0.2500000E-01  -0.0000000E+00 -0.1000000E+01 -0.0000000E+00
  0.2032520E+00 -0.1173476E+00  0.2500000E-01  -0.0000000E+00 -0.1000000E+01 -0.0000000E+00
 -0.2032520E+00 -0.1173476E+00  0.2500000E-01  -0.0000000E+00 -0.1000000E+01 -0.0000000E+00
           4
 -0.2032520E+00  0.1173476E+00 -0.2500000E-01   0.9091407E-17  0.0000000E+00 -0.1000000E+01
  0.2032520E+00  0.1173476E+00 -0.2500000E-01   0.9091407E-17  0.0000000E+00 -0.1000000E+01
  0.2032520E+00 -0.1173476E+00 -0.2500000E-01   0.9091407E-17  0.0000000E+00 -0.1000000E+01
 -0.2032520E+00 -0.1173476E+00 -0.2500000E-01   0.9091407E-17  0.0000000E+00 -0.1000000E+01
           4
  0.2032520E+00 -0.1173476E+00  0.2500000E-01  -0.5454844E-17 -0.0000000E+00  0.1000000E+01
  0.2032520E+00  0.1173476E+00  0.2500000E-01  -0.5454844E-17 -0.0000000E+00  0.1000000E+01
 -0.2032520E+00  0.1173476E+00  0.2500000E-01  -0.5454844E-17 -0.0000000E+00  0.1000000E+01
 -0.2032520E+00 -0.1173476E+00  0.2500000E-01  -0.5454844E-17 -0.0000000E+00  0.1000000E+01
           4
 -0.2032520E+00  0.1173476E+00  0.2500000E-01   0.0000000E+00  0.1000000E+01  0.0000000E+00
  0.2032520E+00  0.1173476E+00  0.2500000E-01   0.0000000E+00  0.1000000E+01  0.0000000E+00
  0.2032520E+00  0.1173476E+00 -0.2500000E-01   0.0000000E+00  0.1000000E+01  0.0000000E+00
 -0.2032520E+00  0.1173476E+00 -0.2500000E-01   0.0000000E+00  0.1000000E+01  0.0000000E+00
           4
  0.2032520E+00 -0.1173476E+00 -0.2500000E-01   0.1000000E+01 -0.0000000E+00 -0.0000000E+00
  0.2032520E+00  0.1173476E+00 -0.2500000E-01   0.1000000E+01 -0.0000000E+00 -0.0000000E+00
  0.2032520E+00  0.1173476E+00  0.2500000E-01   0.1000000E+01 -0.0000000E+00 -0.0000000E+00
  0.2032520E+00 -0.1173476E+00  0.2500000E-01   0.1000000E+01 -0.0000000E+00 -0.0000000E+00
 BRILLOUIN-ZONE-CONVCELL_END
 ATOMS
    6    0.0000000000    0.0000000000    8.0000000000
    6    0.0000000000    2.8405633240    8.0000000000
    6    1.2300000000    2.1304224630    8.0000000000
    6    1.2300000000    0.7101408310    8.0000000000
    6    0.0000000000    4.2608449870    8.0000000000
    6    2.4600000000    0.0000000000    8.0000000000
    6    2.4600000000    2.8405633240    8.0000000000
    6    2.4600000000    4.2608449870    8.0000000000
 FRAMES
1      0.0000000000    0.0000000000    0.0000000000      2.4600000000    0.0000000000    0.0000000000
1      0.0000000000    0.0000000000    0.0000000000      0.0000000000    4.2608449870    0.0000000000
1      0.0000000000    0.0000000000    0.0000000000      0.0000000000    0.0000000000   20.0000000000
1      0.0000000000    0.0000000000   20.0000000000      2.4600000000    0.0000000000   20.0000000000
1      0.0000000000    0.0000000000   20.0000000000      0.0000000000    4.2608449870   20.0000000000
1      0.0000000000    4.2608449870    0.0000000000      2.4600000000    4.2608449870    0.0000000000
1      0.0000000000    4.2608449870    0.0000000000      0.0000000000    4.2608449870   20.0000000000
1      0.0000000000    4.2608449870   20.0000000000      2.4600000000    4.2608449870   20.0000000000
1      2.4600000000    0.0000000000    0.0000000000      2.4600000000    4.2608449870    0.0000000000
1      2.4600000000    0.0000000000    0.0000000000      2.4600000000    0.0000000000   20.0000000000
1      2.4600000000    0.0000000000   20.0000000000      2.4600000000    4.2608449870   20.0000000000
1      2.4600000000    4.2608449870    0.0000000000      2.4600000000    4.2608449870   20.0000000000
