 INFO
nunit      1    1    1
unit   cell
celltype   convcell
shape   parapipedal
 END_INFO
 DIM-GROUP
           3           9
 PRIMVEC
    2.4559104570    0.0000000000    0.0000000000
   -1.2279552280    2.1268808450    0.0000000000
    0.0000000000    0.0000000000   31.9268359410
 CONVVEC
    2.4559104570    0.0000000000    0.0000000000
   -1.2279552280    2.1268808450    0.0000000000
    0.0000000000    0.0000000000   31.9268359410
 PRIMCOORD
           2           1
  6      0.0000000000     0.0000000000     1.2279552280
  6      0.0000000000     1.4170603340     1.2279552280
 CONVCOORD
           2           1
  6      0.0000000000     0.0000000000     1.2279552280
  6      0.0000000000     1.4170603340     1.2279552280
 RECIP-PRIMVEC
    0.4071809691    0.2350860421   -0.0000000000

    0.0000000000    0.4701720843    0.0000000000

    0.0000000000   -0.0000000000    0.0313216130

 RECIP-CONVVEC
    0.4071809691    0.2350860421   -0.0000000000

    0.0000000000    0.4701720843    0.0000000000

    0.0000000000   -0.0000000000    0.0313216130

 WIGNER-SEITZ-PRIMCELL
           4
 -0.1227955E+01 -0.7089603E+00 -0.1596342E+02  -0.5000000E+00 -0.8660254E+00 -0.7589297E-15
 -0.5000000E-09 -0.1417921E+01 -0.1596342E+02  -0.5000000E+00 -0.8660254E+00 -0.7589297E-15
 -0.5000358E-09 -0.1417921E+01  0.1596342E+02  -0.5000000E+00 -0.8660254E+00 -0.7589297E-15
 -0.1227955E+01 -0.7089603E+00  0.1596342E+02  -0.5000000E+00 -0.8660254E+00 -0.7589297E-15
           4
 -0.1227955E+01  0.7089603E+00  0.1596342E+02  -0.1000000E+01  0.0000000E+00  0.0000000E+00
 -0.1227955E+01  0.7089603E+00 -0.1596342E+02  -0.1000000E+01  0.0000000E+00  0.0000000E+00
 -0.1227955E+01 -0.7089603E+00 -0.1596342E+02  -0.1000000E+01  0.0000000E+00  0.0000000E+00
 -0.1227955E+01 -0.7089603E+00  0.1596342E+02  -0.1000000E+01  0.0000000E+00  0.0000000E+00
           4
 -0.5000000E-09 -0.1417921E+01 -0.1596342E+02   0.5000000E+00 -0.8660254E+00 -0.2452463E-17
  0.1227955E+01 -0.7089603E+00 -0.1596342E+02   0.5000000E+00 -0.8660254E+00 -0.2452463E-17
  0.1227955E+01 -0.7089603E+00  0.1596342E+02   0.5000000E+00 -0.8660254E+00 -0.2452463E-17
 -0.5000026E-09 -0.1417921E+01  0.1596342E+02   0.5000000E+00 -0.8660254E+00 -0.2452463E-17
           6
 -0.1227955E+01 -0.7089603E+00 -0.1596342E+02   0.2040449E-14  0.0000000E+00 -0.1000000E+01
 -0.1227955E+01  0.7089603E+00 -0.1596342E+02   0.2040449E-14  0.0000000E+00 -0.1000000E+01
  0.5000000E-09  0.1417921E+01 -0.1596342E+02   0.2040449E-14  0.0000000E+00 -0.1000000E+01
  0.1227955E+01  0.7089603E+00 -0.1596342E+02   0.2040449E-14  0.0000000E+00 -0.1000000E+01
  0.1227955E+01 -0.7089603E+00 -0.1596342E+02   0.2040449E-14  0.0000000E+00 -0.1000000E+01
 -0.5000000E-09 -0.1417921E+01 -0.1596342E+02   0.2040449E-14  0.0000000E+00 -0.1000000E+01
           6
 -0.5000358E-09 -0.1417921E+01  0.1596342E+02   0.4080898E-14 -0.0000000E+00  0.1000000E+01
  0.1227955E+01 -0.7089603E+00  0.1596342E+02   0.4080898E-14 -0.0000000E+00  0.1000000E+01
  0.1227955E+01  0.7089603E+00  0.1596342E+02   0.4080898E-14 -0.0000000E+00  0.1000000E+01
  0.4999485E-09  0.1417921E+01  0.1596342E+02   0.4080898E-14 -0.0000000E+00  0.1000000E+01
 -0.1227955E+01  0.7089603E+00  0.1596342E+02   0.4080898E-14 -0.0000000E+00  0.1000000E+01
 -0.1227955E+01 -0.7089603E+00  0.1596342E+02   0.4080898E-14 -0.0000000E+00  0.1000000E+01
           4
  0.5000000E-09  0.1417921E+01  0.1596342E+02  -0.5000000E+00  0.8660254E+00 -0.9907950E-15
  0.5000000E-09  0.1417921E+01 -0.1596342E+02  -0.5000000E+00  0.8660254E+00 -0.9907950E-15
 -0.1227955E+01  0.7089603E+00 -0.1596342E+02  -0.5000000E+00  0.8660254E+00 -0.9907950E-15
 -0.1227955E+01  0.7089603E+00  0.1596342E+02  -0.5000000E+00  0.8660254E+00 -0.9907950E-15
           4
  0.1227955E+01 -0.7089603E+00 -0.1596342E+02   0.1000000E+01 -0.0000000E+00 -0.0000000E+00
  0.1227955E+01  0.7089603E+00 -0.1596342E+02   0.1000000E+01 -0.0000000E+00 -0.0000000E+00
  0.1227955E+01  0.7089603E+00  0.1596342E+02   0.1000000E+01 -0.0000000E+00 -0.0000000E+00
  0.1227955E+01 -0.7089603E+00  0.1596342E+02   0.1000000E+01 -0.0000000E+00 -0.0000000E+00
           4
  0.1227955E+01  0.7089603E+00  0.1596342E+02   0.5000000E+00  0.8660254E+00  0.3923941E-15
  0.1227955E+01  0.7089603E+00 -0.1596342E+02   0.5000000E+00  0.8660254E+00  0.3923941E-15
  0.5000000E-09  0.1417921E+01 -0.1596342E+02   0.5000000E+00  0.8660254E+00  0.3923941E-15
  0.4999460E-09  0.1417921E+01  0.1596342E+02   0.5000000E+00  0.8660254E+00  0.3923941E-15
 WIGNER-SEITZ-PRIMCELL_END
 WIGNER-SEITZ-CONVCELL
           4
 -0.1227955E+01 -0.7089603E+00 -0.1596342E+02  -0.5000000E+00 -0.8660254E+00 -0.7589297E-15
 -0.5000000E-09 -0.1417921E+01 -0.1596342E+02  -0.5000000E+00 -0.8660254E+00 -0.7589297E-15
 -0.5000358E-09 -0.1417921E+01  0.1596342E+02  -0.5000000E+00 -0.8660254E+00 -0.7589297E-15
 -0.1227955E+01 -0.7089603E+00  0.1596342E+02  -0.5000000E+00 -0.8660254E+00 -0.7589297E-15
           4
 -0.1227955E+01  0.7089603E+00  0.1596342E+02  -0.1000000E+01  0.0000000E+00  0.0000000E+00
 -0.1227955E+01  0.7089603E+00 -0.1596342E+02  -0.1000000E+01  0.0000000E+00  0.0000000E+00
 -0.1227955E+01 -0.7089603E+00 -0.1596342E+02  -0.1000000E+01  0.0000000E+00  0.0000000E+00
 -0.1227955E+01 -0.7089603E+00  0.1596342E+02  -0.1000000E+01  0.0000000E+00  0.0000000E+00
           4
 -0.5000000E-09 -0.1417921E+01 -0.1596342E+02   0.5000000E+00 -0.8660254E+00 -0.2452463E-17
  0.1227955E+01 -0.7089603E+00 -0.1596342E+02   0.5000000E+00 -0.8660254E+00 -0.2452463E-17
  0.1227955E+01 -0.7089603E+00  0.1596342E+02   0.5000000E+00 -0.8660254E+00 -0.2452463E-17
 -0.5000026E-09 -0.1417921E+01  0.1596342E+02   0.5000000E+00 -0.8660254E+00 -0.2452463E-17
           6
 -0.1227955E+01 -0.7089603E+00 -0.1596342E+02   0.2040449E-14  0.0000000E+00 -0.1000000E+01
 -0.1227955E+01  0.7089603E+00 -0.1596342E+02   0.2040449E-14  0.0000000E+00 -0.1000000E+01
  0.5000000E-09  0.1417921E+01 -0.1596342E+02   0.2040449E-14  0.0000000E+00 -0.1000000E+01
  0.1227955E+01  0.7089603E+00 -0.1596342E+02   0.2040449E-14  0.0000000E+00 -0.1000000E+01
  0.1227955E+01 -0.7089603E+00 -0.1596342E+02   0.2040449E-14  0.0000000E+00 -0.1000000E+01
 -0.5000000E-09 -0.1417921E+01 -0.1596342E+02   0.2040449E-14  0.0000000E+00 -0.1000000E+01
           6
 -0.5000358E-09 -0.1417921E+01  0.1596342E+02   0.4080898E-14 -0.0000000E+00  0.1000000E+01
  0.1227955E+01 -0.7089603E+00  0.1596342E+02   0.4080898E-14 -0.0000000E+00  0.1000000E+01
  0.1227955E+01  0.7089603E+00  0.1596342E+02   0.4080898E-14 -0.0000000E+00  0.1000000E+01
  0.4999485E-09  0.1417921E+01  0.1596342E+02   0.4080898E-14 -0.0000000E+00  0.1000000E+01
 -0.1227955E+01  0.7089603E+00  0.1596342E+02   0.4080898E-14 -0.0000000E+00  0.1000000E+01
 -0.1227955E+01 -0.7089603E+00  0.1596342E+02   0.4080898E-14 -0.0000000E+00  0.1000000E+01
           4
  0.5000000E-09  0.1417921E+01  0.1596342E+02  -0.5000000E+00  0.8660254E+00 -0.9907950E-15
  0.5000000E-09  0.1417921E+01 -0.1596342E+02  -0.5000000E+00  0.8660254E+00 -0.9907950E-15
 -0.1227955E+01  0.7089603E+00 -0.1596342E+02  -0.5000000E+00  0.8660254E+00 -0.9907950E-15
 -0.1227955E+01  0.7089603E+00  0.1596342E+02  -0.5000000E+00  0.8660254E+00 -0.9907950E-15
           4
  0.1227955E+01 -0.7089603E+00 -0.1596342E+02   0.1000000E+01 -0.0000000E+00 -0.0000000E+00
  0.1227955E+01  0.7089603E+00 -0.1596342E+02   0.1000000E+01 -0.0000000E+00 -0.0000000E+00
  0.1227955E+01  0.7089603E+00  0.1596342E+02   0.1000000E+01 -0.0000000E+00 -0.0000000E+00
  0.1227955E+01 -0.7089603E+00  0.1596342E+02   0.1000000E+01 -0.0000000E+00 -0.0000000E+00
           4
  0.1227955E+01  0.7089603E+00  0.1596342E+02   0.5000000E+00  0.8660254E+00  0.3923941E-15
  0.1227955E+01  0.7089603E+00 -0.1596342E+02   0.5000000E+00  0.8660254E+00  0.3923941E-15
  0.5000000E-09  0.1417921E+01 -0.1596342E+02   0.5000000E+00  0.8660254E+00  0.3923941E-15
  0.4999460E-09  0.1417921E+01  0.1596342E+02   0.5000000E+00  0.8660254E+00  0.3923941E-15
 WIGNER-SEITZ-CONVCELL_END
 BRILLOUIN-ZONE-PRIMCELL
           4
 -0.2714540E+00  0.9572263E-10  0.1566081E-01  -0.8660254E+00 -0.5000000E+00  0.5772683E-15
 -0.2714540E+00  0.9572260E-10 -0.1566081E-01  -0.8660254E+00 -0.5000000E+00  0.5772683E-15
 -0.1357270E+00 -0.2350860E+00 -0.1566081E-01  -0.8660254E+00 -0.5000000E+00  0.5772683E-15
 -0.1357270E+00 -0.2350860E+00  0.1566081E-01  -0.8660254E+00 -0.5000000E+00  0.5772683E-15
           4
 -0.1357270E+00  0.2350860E+00  0.1566081E-01  -0.8660254E+00  0.5000000E+00 -0.1534853E-14
 -0.1357270E+00  0.2350860E+00 -0.1566081E-01  -0.8660254E+00  0.5000000E+00 -0.1534853E-14
 -0.2714540E+00  0.9572260E-10 -0.1566081E-01  -0.8660254E+00  0.5000000E+00 -0.1534853E-14
 -0.2714540E+00  0.9572260E-10  0.1566081E-01  -0.8660254E+00  0.5000000E+00 -0.1534853E-14
           4
 -0.1357270E+00 -0.2350860E+00 -0.1566081E-01  -0.2786155E-29 -0.1000000E+01 -0.7674264E-15
  0.1357270E+00 -0.2350860E+00 -0.1566081E-01  -0.2786155E-29 -0.1000000E+01 -0.7674264E-15
  0.1357270E+00 -0.2350860E+00  0.1566081E-01  -0.2786155E-29 -0.1000000E+01 -0.7674264E-15
 -0.1357270E+00 -0.2350860E+00  0.1566081E-01  -0.2786155E-29 -0.1000000E+01 -0.7674264E-15
           6
 -0.2714540E+00  0.9572260E-10 -0.1566081E-01   0.0000000E+00  0.6795904E-17 -0.1000000E+01
 -0.1357270E+00  0.2350860E+00 -0.1566081E-01   0.0000000E+00  0.6795904E-17 -0.1000000E+01
  0.1357270E+00  0.2350860E+00 -0.1566081E-01   0.0000000E+00  0.6795904E-17 -0.1000000E+01
  0.2714540E+00 -0.9572260E-10 -0.1566081E-01   0.0000000E+00  0.6795904E-17 -0.1000000E+01
  0.1357270E+00 -0.2350860E+00 -0.1566081E-01   0.0000000E+00  0.6795904E-17 -0.1000000E+01
 -0.1357270E+00 -0.2350860E+00 -0.1566081E-01   0.0000000E+00  0.6795904E-17 -0.1000000E+01
           6
 -0.1357270E+00 -0.2350860E+00  0.1566081E-01  -0.0000000E+00  0.1359181E-16  0.1000000E+01
  0.1357270E+00 -0.2350860E+00  0.1566081E-01  -0.0000000E+00  0.1359181E-16  0.1000000E+01
  0.2714540E+00 -0.9572260E-10  0.1566081E-01  -0.0000000E+00  0.1359181E-16  0.1000000E+01
  0.1357270E+00  0.2350860E+00  0.1566081E-01  -0.0000000E+00  0.1359181E-16  0.1000000E+01
 -0.1357270E+00  0.2350860E+00  0.1566081E-01  -0.0000000E+00  0.1359181E-16  0.1000000E+01
 -0.2714540E+00  0.9572263E-10  0.1566081E-01  -0.0000000E+00  0.1359181E-16  0.1000000E+01
           4
 -0.1357270E+00  0.2350860E+00  0.1566081E-01   0.1022478E-15  0.1000000E+01 -0.1632225E-14
  0.1357270E+00  0.2350860E+00  0.1566081E-01   0.1022478E-15  0.1000000E+01 -0.1632225E-14
  0.1357270E+00  0.2350860E+00 -0.1566081E-01   0.1022478E-15  0.1000000E+01 -0.1632225E-14
 -0.1357270E+00  0.2350860E+00 -0.1566081E-01   0.1022478E-15  0.1000000E+01 -0.1632225E-14
           4
  0.1357270E+00 -0.2350860E+00 -0.1566081E-01   0.8660254E+00 -0.5000000E+00 -0.0000000E+00
  0.2714540E+00 -0.9572260E-10 -0.1566081E-01   0.8660254E+00 -0.5000000E+00 -0.0000000E+00
  0.2714540E+00 -0.9572260E-10  0.1566081E-01   0.8660254E+00 -0.5000000E+00 -0.0000000E+00
  0.1357270E+00 -0.2350860E+00  0.1566081E-01   0.8660254E+00 -0.5000000E+00 -0.0000000E+00
           4
  0.1357270E+00  0.2350860E+00  0.1566081E-01   0.8660254E+00  0.5000000E+00  0.0000000E+00
  0.2714540E+00 -0.9572260E-10  0.1566081E-01   0.8660254E+00  0.5000000E+00  0.0000000E+00
  0.2714540E+00 -0.9572260E-10 -0.1566081E-01   0.8660254E+00  0.5000000E+00  0.0000000E+00
  0.1357270E+00  0.2350860E+00 -0.1566081E-01   0.8660254E+00  0.5000000E+00  0.0000000E+00
 BRILLOUIN-ZONE-PRIMCELL_END
 BRILLOUIN-ZONE-CONVCELL
           4
 -0.2714540E+00  0.9572263E-10  0.1566081E-01  -0.8660254E+00 -0.5000000E+00  0.5772683E-15
 -0.2714540E+00  0.9572260E-10 -0.1566081E-01  -0.8660254E+00 -0.5000000E+00  0.5772683E-15
 -0.1357270E+00 -0.2350860E+00 -0.1566081E-01  -0.8660254E+00 -0.5000000E+00  0.5772683E-15
 -0.1357270E+00 -0.2350860E+00  0.1566081E-01  -0.8660254E+00 -0.5000000E+00  0.5772683E-15
           4
 -0.1357270E+00  0.2350860E+00  0.1566081E-01  -0.8660254E+00  0.5000000E+00 -0.1534853E-14
 -0.1357270E+00  0.2350860E+00 -0.1566081E-01  -0.8660254E+00  0.5000000E+00 -0.1534853E-14
 -0.2714540E+00  0.9572260E-10 -0.1566081E-01  -0.8660254E+00  0.5000000E+00 -0.1534853E-14
 -0.2714540E+00  0.9572260E-10  0.1566081E-01  -0.8660254E+00  0.5000000E+00 -0.1534853E-14
           4
 -0.1357270E+00 -0.2350860E+00 -0.1566081E-01  -0.2786155E-29 -0.1000000E+01 -0.7674264E-15
  0.1357270E+00 -0.2350860E+00 -0.1566081E-01  -0.2786155E-29 -0.1000000E+01 -0.7674264E-15
  0.1357270E+00 -0.2350860E+00  0.1566081E-01  -0.2786155E-29 -0.1000000E+01 -0.7674264E-15
 -0.1357270E+00 -0.2350860E+00  0.1566081E-01  -0.2786155E-29 -0.1000000E+01 -0.7674264E-15
           6
 -0.2714540E+00  0.9572260E-10 -0.1566081E-01   0.0000000E+00  0.6795904E-17 -0.1000000E+01
 -0.1357270E+00  0.2350860E+00 -0.1566081E-01   0.0000000E+00  0.6795904E-17 -0.1000000E+01
  0.1357270E+00  0.2350860E+00 -0.1566081E-01   0.0000000E+00  0.6795904E-17 -0.1000000E+01
  0.2714540E+00 -0.9572260E-10 -0.1566081E-01   0.0000000E+00  0.6795904E-17 -0.1000000E+01
  0.1357270E+00 -0.2350860E+00 -0.1566081E-01   0.0000000E+00  0.6795904E-17 -0.1000000E+01
 -0.1357270E+00 -0.2350860E+00 -0.1566081E-01   0.0000000E+00  0.6795904E-17 -0.1000000E+01
           6
 -0.1357270E+00 -0.2350860E+00  0.1566081E-01  -0.0000000E+00  0.1359181E-16  0.1000000E+01
  0.1357270E+00 -0.2350860E+00  0.1566081E-01  -0.0000000E+00  0.1359181E-16  0.1000000E+01
  0.2714540E+00 -0.9572260E-10  0.1566081E-01  -0.0000000E+00  0.1359181E-16  0.1000000E+01
  0.1357270E+00  0.2350860E+00  0.1566081E-01  -0.0000000E+00  0.1359181E-16  0.1000000E+01
 -0.1357270E+00  0.2350860E+00  0.1566081E-01  -0.0000000E+00  0.1359181E-16  0.1000000E+01
 -0.2714540E+00  0.9572263E-10  0.1566081E-01  -0.0000000E+00  0.1359181E-16  0.1000000E+01
           4
 -0.1357270E+00  0.2350860E+00  0.1566081E-01   0.1022478E-15  0.1000000E+01 -0.1632225E-14
  0.1357270E+00  0.2350860E+00  0.1566081E-01   0.1022478E-15  0.1000000E+01 -0.1632225E-14
  0.1357270E+00  0.2350860E+00 -0.1566081E-01   0.1022478E-15  0.1000000E+01 -0.1632225E-14
 -0.1357270E+00  0.2350860E+00 -0.1566081E-01   0.1022478E-15  0.1000000E+01 -0.1632225E-14
           4
  0.1357270E+00 -0.2350860E+00 -0.1566081E-01   0.8660254E+00 -0.5000000E+00 -0.0000000E+00
  0.2714540E+00 -0.9572260E-10 -0.1566081E-01   0.8660254E+00 -0.5000000E+00 -0.0000000E+00
  0.2714540E+00 -0.9572260E-10  0.1566081E-01   0.8660254E+00 -0.5000000E+00 -0.0000000E+00
  0.1357270E+00 -0.2350860E+00  0.1566081E-01   0.8660254E+00 -0.5000000E+00 -0.0000000E+00
           4
  0.1357270E+00  0.2350860E+00  0.1566081E-01   0.8660254E+00  0.5000000E+00  0.0000000E+00
  0.2714540E+00 -0.9572260E-10  0.1566081E-01   0.8660254E+00  0.5000000E+00  0.0000000E+00
  0.2714540E+00 -0.9572260E-10 -0.1566081E-01   0.8660254E+00  0.5000000E+00  0.0000000E+00
  0.1357270E+00  0.2350860E+00 -0.1566081E-01   0.8660254E+00  0.5000000E+00  0.0000000E+00
 BRILLOUIN-ZONE-CONVCELL_END
 ATOMS
    6    0.0000000000    0.0000000000    1.2279552280
    6    0.0000000000    1.4170603340    1.2279552280
    6   -1.2279552280    2.1268808450    1.2279552280
    6    2.4559104570    0.0000000000    1.2279552280
    6    1.2279552290    2.1268808450    1.2279552280
 FRAMES
1      0.0000000000    0.0000000000    0.0000000000      2.4559104570    0.0000000000    0.0000000000
1      0.0000000000    0.0000000000    0.0000000000     -1.2279552280    2.1268808450    0.0000000000
1      0.0000000000    0.0000000000    0.0000000000      0.0000000000    0.0000000000   31.9268359410
1      0.0000000000    0.0000000000   31.9268359410      2.4559104570    0.0000000000   31.9268359410
1      0.0000000000    0.0000000000   31.9268359410     -1.2279552280    2.1268808450   31.9268359410
1     -1.2279552280    2.1268808450    0.0000000000      1.2279552290    2.1268808450    0.0000000000
1     -1.2279552280    2.1268808450    0.0000000000     -1.2279552280    2.1268808450   31.9268359410
1     -1.2279552280    2.1268808450   31.9268359410      1.2279552290    2.1268808450   31.9268359410
1      2.4559104570    0.0000000000    0.0000000000      1.2279552290    2.1268808450    0.0000000000
1      2.4559104570    0.0000000000    0.0000000000      2.4559104570    0.0000000000   31.9268359410
1      2.4559104570    0.0000000000   31.9268359410      1.2279552290    2.1268808450   31.9268359410
1      1.2279552290    2.1268808450    0.0000000000      1.2279552290    2.1268808450   31.9268359410
