 INFO
nunit      1    1    1
unit   cell
celltype   convcell
shape   parapipedal
 END_INFO
 DIM-GROUP
           3           1
 PRIMVEC
    3.5000000000    0.0000000000    0.0000000000
    0.0000000000    6.2800000000    0.0000000000
    0.0000000000    0.0000000000   30.0000000000
 CONVVEC
    3.5000000000    0.0000000000    0.0000000000
    0.0000000000    6.2800000000    0.0000000000
    0.0000000000    0.0000000000   30.0000000000
 PRIMCOORD
           6           1
 74      0.0000000000     0.6348494460     7.0369956520
 74      1.7500000000     2.8643989580     6.8253903450
 52      1.7500000000     5.3464571370     5.4513331500
 52      0.0000000000     4.4329517720     8.4125389810
 52      0.0000000000     2.2467505600     4.8257020770
 52      1.7500000000     1.2509841280     9.0361457950
 CONVCOORD
           6           1
 74      0.0000000000     0.6348494460     7.0369956520
 74      1.7500000000     2.8643989580     6.8253903450
 52      1.7500000000     5.3464571370     5.4513331500
 52      0.0000000000     4.4329517720     8.4125389810
 52      0.0000000000     2.2467505600     4.8257020770
 52      1.7500000000     1.2509841280     9.0361457950
 RECIP-PRIMVEC
    0.2857142857    0.0000000000    0.0000000000

    0.0000000000    0.1592356688    0.0000000000

    0.0000000000    0.0000000000    0.0333333333

 RECIP-CONVVEC
    0.2857142857    0.0000000000    0.0000000000

    0.0000000000    0.1592356688    0.0000000000

    0.0000000000    0.0000000000    0.0333333333

 WIGNER-SEITZ-PRIMCELL
           4
 -0.1750000E+01  0.3140000E+01  0.1500000E+02  -0.1000000E+01  0.0000000E+00  0.0000000E+00
 -0.1750000E+01  0.3140000E+01 -0.1500000E+02  -0.1000000E+01  0.0000000E+00  0.0000000E+00
 -0.1750000E+01 -0.3140000E+01 -0.1500000E+02  -0.1000000E+01  0.0000000E+00  0.0000000E+00
 -0.1750000E+01 -0.3140000E+01  0.1500000E+02  -0.1000000E+01  0.0000000E+00  0.0000000E+00
           4
 -0.1750000E+01 -0.3140000E+01  0.1500000E+02  -0.0000000E+00 -0.1000000E+01 -0.0000000E+00
 -0.1750000E+01 -0.3140000E+01 -0.1500000E+02  -0.0000000E+00 -0.1000000E+01 -0.0000000E+00
  0.1750000E+01 -0.3140000E+01 -0.1500000E+02  -0.0000000E+00 -0.1000000E+01 -0.0000000E+00
  0.1750000E+01 -0.3140000E+01  0.1500000E+02  -0.0000000E+00 -0.1000000E+01 -0.0000000E+00
           4
 -0.1750000E+01  0.3140000E+01 -0.1500000E+02   0.0000000E+00  0.0000000E+00 -0.1000000E+01
  0.1750000E+01  0.3140000E+01 -0.1500000E+02   0.0000000E+00  0.0000000E+00 -0.1000000E+01
  0.1750000E+01 -0.3140000E+01 -0.1500000E+02   0.0000000E+00  0.0000000E+00 -0.1000000E+01
 -0.1750000E+01 -0.3140000E+01 -0.1500000E+02   0.0000000E+00  0.0000000E+00 -0.1000000E+01
           4
 -0.1750000E+01 -0.3140000E+01  0.1500000E+02  -0.0000000E+00  0.4040848E-16  0.1000000E+01
  0.1750000E+01 -0.3140000E+01  0.1500000E+02  -0.0000000E+00  0.4040848E-16  0.1000000E+01
  0.1750000E+01  0.3140000E+01  0.1500000E+02  -0.0000000E+00  0.4040848E-16  0.1000000E+01
 -0.1750000E+01  0.3140000E+01  0.1500000E+02  -0.0000000E+00  0.4040848E-16  0.1000000E+01
           4
  0.1750000E+01  0.3140000E+01  0.1500000E+02   0.0000000E+00  0.1000000E+01  0.0000000E+00
  0.1750000E+01  0.3140000E+01 -0.1500000E+02   0.0000000E+00  0.1000000E+01  0.0000000E+00
 -0.1750000E+01  0.3140000E+01 -0.1500000E+02   0.0000000E+00  0.1000000E+01  0.0000000E+00
 -0.1750000E+01  0.3140000E+01  0.1500000E+02   0.0000000E+00  0.1000000E+01  0.0000000E+00
           4
  0.1750000E+01 -0.3140000E+01  0.1500000E+02   0.1000000E+01 -0.0000000E+00 -0.0000000E+00
  0.1750000E+01 -0.3140000E+01 -0.1500000E+02   0.1000000E+01 -0.0000000E+00 -0.0000000E+00
  0.1750000E+01  0.3140000E+01 -0.1500000E+02   0.1000000E+01 -0.0000000E+00 -0.0000000E+00
  0.1750000E+01  0.3140000E+01  0.1500000E+02   0.1000000E+01 -0.0000000E+00 -0.0000000E+00
 WIGNER-SEITZ-PRIMCELL_END
 WIGNER-SEITZ-CONVCELL
           4
 -0.1750000E+01  0.3140000E+01  0.1500000E+02  -0.1000000E+01  0.0000000E+00  0.0000000E+00
 -0.1750000E+01  0.3140000E+01 -0.1500000E+02  -0.1000000E+01  0.0000000E+00  0.0000000E+00
 -0.1750000E+01 -0.3140000E+01 -0.1500000E+02  -0.1000000E+01  0.0000000E+00  0.0000000E+00
 -0.1750000E+01 -0.3140000E+01  0.1500000E+02  -0.1000000E+01  0.0000000E+00  0.0000000E+00
           4
 -0.1750000E+01 -0.3140000E+01  0.1500000E+02  -0.0000000E+00 -0.1000000E+01 -0.0000000E+00
 -0.1750000E+01 -0.3140000E+01 -0.1500000E+02  -0.0000000E+00 -0.1000000E+01 -0.0000000E+00
  0.1750000E+01 -0.3140000E+01 -0.1500000E+02  -0.0000000E+00 -0.1000000E+01 -0.0000000E+00
  0.1750000E+01 -0.3140000E+01  0.1500000E+02  -0.0000000E+00 -0.1000000E+01 -0.0000000E+00
           4
 -0.1750000E+01  0.3140000E+01 -0.1500000E+02   0.0000000E+00  0.0000000E+00 -0.1000000E+01
  0.1750000E+01  0.3140000E+01 -0.1500000E+02   0.0000000E+00  0.0000000E+00 -0.1000000E+01
  0.1750000E+01 -0.3140000E+01 -0.1500000E+02   0.0000000E+00  0.0000000E+00 -0.1000000E+01
 -0.1750000E+01 -0.3140000E+01 -0.1500000E+02   0.0000000E+00  0.0000000E+00 -0.1000000E+01
           4
 -0.1750000E+01 -0.3140000E+01  0.1500000E+02  -0.0000000E+00  0.4040848E-16  0.1000000E+01
  0.1750000E+01 -0.3140000E+01  0.1500000E+02  -0.0000000E+00  0.4040848E-16  0.1000000E+01
  0.1750000E+01  0.3140000E+01  0.1500000E+02  -0.0000000E+00  0.4040848E-16  0.1000000E+01
 -0.1750000E+01  0.3140000E+01  0.1500000E+02  -0.0000000E+00  0.4040848E-16  0.1000000E+01
           4
  0.1750000E+01  0.3140000E+01  0.1500000E+02   0.0000000E+00  0.1000000E+01  0.0000000E+00
  0.1750000E+01  0.3140000E+01 -0.1500000E+02   0.0000000E+00  0.1000000E+01  0.0000000E+00
 -0.1750000E+01  0.3140000E+01 -0.1500000E+02   0.0000000E+00  0.1000000E+01  0.0000000E+00
 -0.1750000E+01  0.3140000E+01  0.1500000E+02   0.0000000E+00  0.1000000E+01  0.0000000E+00
           4
  0.1750000E+01 -0.3140000E+01  0.1500000E+02   0.1000000E+01 -0.0000000E+00 -0.0000000E+00
  0.1750000E+01 -0.3140000E+01 -0.1500000E+02   0.1000000E+01 -0.0000000E+00 -0.0000000E+00
  0.1750000E+01  0.3140000E+01 -0.1500000E+02   0.1000000E+01 -0.0000000E+00 -0.0000000E+00
  0.1750000E+01  0.3140000E+01  0.1500000E+02   0.1000000E+01 -0.0000000E+00 -0.0000000E+00
 WIGNER-SEITZ-CONVCELL_END
 BRILLOUIN-ZONE-PRIMCELL
           4
 -0.1428571E+00  0.7961783E-01  0.1666667E-01  -0.1000000E+01  0.0000000E+00  0.0000000E+00
 -0.1428571E+00  0.7961783E-01 -0.1666667E-01  -0.1000000E+01  0.0000000E+00  0.0000000E+00
 -0.1428571E+00 -0.7961783E-01 -0.1666667E-01  -0.1000000E+01  0.0000000E+00  0.0000000E+00
 -0.1428571E+00 -0.7961783E-01  0.1666667E-01  -0.1000000E+01  0.0000000E+00  0.0000000E+00
           4
 -0.1428571E+00 -0.7961783E-01 -0.1666667E-01  -0.0000000E+00 -0.1000000E+01 -0.0000000E+00
  0.1428571E+00 -0.7961783E-01 -0.1666667E-01  -0.0000000E+00 -0.1000000E+01 -0.0000000E+00
  0.1428571E+00 -0.7961783E-01  0.1666667E-01  -0.0000000E+00 -0.1000000E+01 -0.0000000E+00
 -0.1428571E+00 -0.7961783E-01  0.1666667E-01  -0.0000000E+00 -0.1000000E+01 -0.0000000E+00
           4
 -0.1428571E+00  0.7961783E-01 -0.1666667E-01   0.0000000E+00  0.0000000E+00 -0.1000000E+01
  0.1428571E+00  0.7961783E-01 -0.1666667E-01   0.0000000E+00  0.0000000E+00 -0.1000000E+01
  0.1428571E+00 -0.7961783E-01 -0.1666667E-01   0.0000000E+00  0.0000000E+00 -0.1000000E+01
 -0.1428571E+00 -0.7961783E-01 -0.1666667E-01   0.0000000E+00  0.0000000E+00 -0.1000000E+01
           4
 -0.1428571E+00 -0.7961783E-01  0.1666667E-01   0.9532306E-17 -0.0000000E+00  0.1000000E+01
  0.1428571E+00 -0.7961783E-01  0.1666667E-01   0.9532306E-17 -0.0000000E+00  0.1000000E+01
  0.1428571E+00  0.7961783E-01  0.1666667E-01   0.9532306E-17 -0.0000000E+00  0.1000000E+01
 -0.1428571E+00  0.7961783E-01  0.1666667E-01   0.9532306E-17 -0.0000000E+00  0.1000000E+01
           4
 -0.1428571E+00  0.7961783E-01  0.1666667E-01   0.0000000E+00  0.1000000E+01  0.2645177E-15
  0.1428571E+00  0.7961783E-01  0.1666667E-01   0.0000000E+00  0.1000000E+01  0.2645177E-15
  0.1428571E+00  0.7961783E-01 -0.1666667E-01   0.0000000E+00  0.1000000E+01  0.2645177E-15
 -0.1428571E+00  0.7961783E-01 -0.1666667E-01   0.0000000E+00  0.1000000E+01  0.2645177E-15
           4
  0.1428571E+00 -0.7961783E-01 -0.1666667E-01   0.1000000E+01 -0.0000000E+00 -0.0000000E+00
  0.1428571E+00  0.7961783E-01 -0.1666667E-01   0.1000000E+01 -0.0000000E+00 -0.0000000E+00
  0.1428571E+00  0.7961783E-01  0.1666667E-01   0.1000000E+01 -0.0000000E+00 -0.0000000E+00
  0.1428571E+00 -0.7961783E-01  0.1666667E-01   0.1000000E+01 -0.0000000E+00 -0.0000000E+00
 BRILLOUIN-ZONE-PRIMCELL_END
 BRILLOUIN-ZONE-CONVCELL
           4
 -0.1428571E+00  0.7961783E-01  0.1666667E-01  -0.1000000E+01  0.0000000E+00  0.0000000E+00
 -0.1428571E+00  0.7961783E-01 -0.1666667E-01  -0.1000000E+01  0.0000000E+00  0.0000000E+00
 -0.1428571E+00 -0.7961783E-01 -0.1666667E-01  -0.1000000E+01  0.0000000E+00  0.0000000E+00
 -0.1428571E+00 -0.7961783E-01  0.1666667E-01  -0.1000000E+01  0.0000000E+00  0.0000000E+00
           4
 -0.1428571E+00 -0.7961783E-01 -0.1666667E-01  -0.0000000E+00 -0.1000000E+01 -0.0000000E+00
  0.1428571E+00 -0.7961783E-01 -0.1666667E-01  -0.0000000E+00 -0.1000000E+01 -0.0000000E+00
  0.1428571E+00 -0.7961783E-01  0.1666667E-01  -0.0000000E+00 -0.1000000E+01 -0.0000000E+00
 -0.1428571E+00 -0.7961783E-01  0.1666667E-01  -0.0000000E+00 -0.1000000E+01 -0.0000000E+00
           4
 -0.1428571E+00  0.7961783E-01 -0.1666667E-01   0.0000000E+00  0.0000000E+00 -0.1000000E+01
  0.1428571E+00  0.7961783E-01 -0.1666667E-01   0.0000000E+00  0.0000000E+00 -0.1000000E+01
  0.1428571E+00 -0.7961783E-01 -0.1666667E-01   0.0000000E+00  0.0000000E+00 -0.1000000E+01
 -0.1428571E+00 -0.7961783E-01 -0.1666667E-01   0.0000000E+00  0.0000000E+00 -0.1000000E+01
           4
 -0.1428571E+00 -0.7961783E-01  0.1666667E-01   0.9532306E-17 -0.0000000E+00  0.1000000E+01
  0.1428571E+00 -0.7961783E-01  0.1666667E-01   0.9532306E-17 -0.0000000E+00  0.1000000E+01
  0.1428571E+00  0.7961783E-01  0.1666667E-01   0.9532306E-17 -0.0000000E+00  0.1000000E+01
 -0.1428571E+00  0.7961783E-01  0.1666667E-01   0.9532306E-17 -0.0000000E+00  0.1000000E+01
           4
 -0.1428571E+00  0.7961783E-01  0.1666667E-01   0.0000000E+00  0.1000000E+01  0.2645177E-15
  0.1428571E+00  0.7961783E-01  0.1666667E-01   0.0000000E+00  0.1000000E+01  0.2645177E-15
  0.1428571E+00  0.7961783E-01 -0.1666667E-01   0.0000000E+00  0.1000000E+01  0.2645177E-15
 -0.1428571E+00  0.7961783E-01 -0.1666667E-01   0.0000000E+00  0.1000000E+01  0.2645177E-15
           4
  0.1428571E+00 -0.7961783E-01 -0.1666667E-01   0.1000000E+01 -0.0000000E+00 -0.0000000E+00
  0.1428571E+00  0.7961783E-01 -0.1666667E-01   0.1000000E+01 -0.0000000E+00 -0.0000000E+00
  0.1428571E+00  0.7961783E-01  0.1666667E-01   0.1000000E+01 -0.0000000E+00 -0.0000000E+00
  0.1428571E+00 -0.7961783E-01  0.1666667E-01   0.1000000E+01 -0.0000000E+00 -0.0000000E+00
 BRILLOUIN-ZONE-CONVCELL_END
 ATOMS
   74    0.0000000000    0.6348494460    7.0369956520
   74    1.7500000000    2.8643989580    6.8253903450
   52    1.7500000000    5.3464571370    5.4513331500
   52    0.0000000000    4.4329517720    8.4125389810
   52    0.0000000000    2.2467505600    4.8257020770
   52    1.7500000000    1.2509841280    9.0361457950
   74    3.5000000000    0.6348494460    7.0369956520
   52    3.5000000000    4.4329517720    8.4125389810
   52    3.5000000000    2.2467505600    4.8257020770
 FRAMES
1      0.0000000000    0.0000000000    0.0000000000      3.5000000000    0.0000000000    0.0000000000
1      0.0000000000    0.0000000000    0.0000000000      0.0000000000    6.2800000000    0.0000000000
1      0.0000000000    0.0000000000    0.0000000000      0.0000000000    0.0000000000   30.0000000000
1      0.0000000000    0.0000000000   30.0000000000      3.5000000000    0.0000000000   30.0000000000
1      0.0000000000    0.0000000000   30.0000000000      0.0000000000    6.2800000000   30.0000000000
1      0.0000000000    6.2800000000    0.0000000000      3.5000000000    6.2800000000    0.0000000000
1      0.0000000000    6.2800000000    0.0000000000      0.0000000000    6.2800000000   30.0000000000
1      0.0000000000    6.2800000000   30.0000000000      3.5000000000    6.2800000000   30.0000000000
1      3.5000000000    0.0000000000    0.0000000000      3.5000000000    6.2800000000    0.0000000000
1      3.5000000000    0.0000000000    0.0000000000      3.5000000000    0.0000000000   30.0000000000
1      3.5000000000    0.0000000000   30.0000000000      3.5000000000    6.2800000000   30.0000000000
1      3.5000000000    6.2800000000    0.0000000000      3.5000000000    6.2800000000   30.0000000000
